Case_Studies/Report/1000_data/case_ieee123_storage_107.m
function mpc = case_ieee123_storage_107
%CASE_IEEE123_STORAGE_107

%% MATPOWER Case Format : Version 2
mpc.version = '2';

%%-----  Power Flow Data  -----%%
%% system MVA base
mpc.baseMVA = 1;

%% bus data
%	bus_i	type	Pd	Qd	Gs	Bs	area	Vm	Va	baseKV	zone	Vmax	Vmin
mpc.bus = [
	1	3	0.000341	0.0001705	0	0	1	1	0	4.16	1	1.2	0.8;
	2	1	0.001372	0.000686	0	0	1	1	0	4.16	1	1.2	0.8;
	3	1	0.001277	0.0006385	0	0	1	1	0	4.16	1	1.2	0.8;
	4	1	0.000164	8.2e-05	0	0	1	1	0	4.16	1	1.2	0.8;
	5	1	0.000341	0.0001705	0	0	1	1	0	4.16	1	1.2	0.8;
	6	1	1e-10	5e-11	0	0	1	1	0	4.16	1	1.2	0.8;
	7	1	1e-10	5e-11	0	0	1	1	0	4.16	1	1.2	0.8;
	8	1	0.000499	0.0002495	0	0	1	1	0	4.16	1	1.2	0.8;
	9	1	0.002495	0.0012475	0	0	1	1	0	4.16	1	1.2	0.8;
	10	1	0.000315	0.0001575	0	0	1	1	0	4.16	1	1.2	0.8;
	11	1	1e-10	5e-11	0	0	1	1	0	4.16	1	1.2	0.8;
	12	1	0.000832	0.000416	0	0	1	1	0	4.16	1	1.2	0.8;
	13	1	0.000327	0.0001635	0	0	1	1	0	4.16	1	1.2	0.8;
	14	1	0.001107	0.0005535	0	0	1	1	0	4.16	1	1.2	0.8;
	15	1	0.000258	0.000129	0	0	1	1	0	4.16	1	1.2	0.8;
	16	1	1e-10	5e-11	0	0	1	1	0	4.16	1	1.2	0.8;
	17	1	0.000122	6.1e-05	0	0	1	1	0	4.16	1	1.2	0.8;
	18	1	0.000204	0.000102	0	0	1	1	0	4.16	1	1.2	0.8;
	19	1	0.000444	0.000222	0	0	1	1	0	4.16	1	1.2	0.8;
	20	1	0.000125	6.25e-05	0	0	1	1	0	4.16	1	1.2	0.8;
	21	1	0.000255	0.0001275	0	0	1	1	0	4.16	1	1.2	0.8;
	22	1	0.000211	0.0001055	0	0	1	1	0	4.16	1	1.2	0.8;
	23	1	0.000221	0.0001105	0	0	1	1	0	4.16	1	1.2	0.8;
	24	1	0.00025	0.000125	0	0	1	1	0	4.16	1	1.2	0.8;
	25	1	0.000301	0.0001505	0	0	1	1	0	4.16	1	1.2	0.8;
	26	1	0.000333	0.0001665	0	0	1	1	0	4.16	1	1.2	0.8;
	27	1	0.000103	5.15e-05	0	0	1	1	0	4.16	1	1.2	0.8;
	28	1	0.000456	0.000228	0	0	1	1	0	4.16	1	1.2	0.8;
	29	1	1e-10	5e-11	0	0	1	1	0	4.16	1	1.2	0.8;
	30	1	0.000339	0.0001695	0	0	1	1	0	4.16	1	1.2	0.8;
	31	1	0.000124	6.2e-05	0	0	1	1	0	4.16	1	1.2	0.8;
	32	1	0.000581	0.0002905	0	0	1	1	0	4.16	1	1.2	0.8;
	33	1	0.003067	0.0015335	0	0	1	1	0	4.16	1	1.2	0.8;
	34	1	0.000466	0.000233	0	0	1	1	0	4.16	1	1.2	0.8;
	35	1	0.000611	0.0003055	0	0	1	1	0	4.16	1	1.2	0.8;
	36	1	1e-10	5e-11	0	0	1	1	0	4.16	1	1.2	0.8;
	37	1	0.002675	0.0013375	0	0	1	1	0	4.16	1	1.2	0.8;
	38	1	0.001112	0.000556	0	0	1	1	0	4.16	1	1.2	0.8;
	39	1	0.000692	0.000346	0	0	1	1	0	4.16	1	1.2	0.8;
	40	1	0.000563	0.0002815	0	0	1	1	0	4.16	1	1.2	0.8;
	41	1	0.00015	7.5e-05	0	0	1	1	0	4.16	1	1.2	0.8;
	42	1	0.000506	0.000253	0	0	1	1	0	4.16	1	1.2	0.8;
	43	1	0.00849	0.004245	0	0	1	1	0	4.16	1	1.2	0.8;
	44	1	0.001944	0.000972	0	0	1	1	0	4.16	1	1.2	0.8;
	45	1	0.000806	0.000403	0	0	1	1	0	4.16	1	1.2	0.8;
	46	1	0.002218	0.001109	0	0	1	1	0	4.16	1	1.2	0.8;
	47	1	0.001636	0.000818	0	0	1	1	0	4.16	1	1.2	0.8;
	48	1	0.000817	0.0004085	0	0	1	1	0	4.16	1	1.2	0.8;
	49	1	0.000322	0.000161	0	0	1	1	0	4.16	1	1.2	0.8;
	50	1	0.000537	0.0002685	0	0	1	1	0	4.16	1	1.2	0.8;
	51	1	1e-10	5e-11	0	0	1	1	0	4.16	1	1.2	0.8;
	52	1	0.000363	0.0001815	0	0	1	1	0	4.16	1	1.2	0.8;
	53	1	0.000641	0.0003205	0	0	1	1	0	4.16	1	1.2	0.8;
	54	1	0.000425	0.0002125	0	0	1	1	0	4.16	1	1.2	0.8;
	55	1	0.000329	0.0001645	0	0	1	1	0	4.16	1	1.2	0.8;
	56	1	0.000246	0.000123	0	0	1	1	0	4.16	1	1.2	0.8;
	57	1	5.4e-05	2.7e-05	0	0	1	1	0	4.16	1	1.2	0.8;
	58	1	0.000222	0.000111	0	0	1	1	0	4.16	1	1.2	0.8;
	59	1	0.000393	0.0001965	0	0	1	1	0	4.16	1	1.2	0.8;
	60	1	0.000133	6.65e-05	0	0	1	1	0	4.16	1	1.2	0.8;
	61	1	0.00099	0.000495	0	0	1	1	0	4.16	1	1.2	0.8;
	62	1	0.000704	0.000352	0	0	1	1	0	4.16	1	1.2	0.8;
	63	1	0.000638	0.000319	0	0	1	1	0	4.16	1	1.2	0.8;
	64	1	0.000402	0.000201	0	0	1	1	0	4.16	1	1.2	0.8;
	65	1	0.000637	0.0003185	0	0	1	1	0	4.16	1	1.2	0.8;
	66	1	0.000823	0.0004115	0	0	1	1	0	4.16	1	1.2	0.8;
	67	1	0.000669	0.0003345	0	0	1	1	0	4.16	1	1.2	0.8;
	68	1	0.01825	0.009125	0	0	1	1	0	4.16	1	1.2	0.8;
	69	1	1e-10	5e-11	0	0	1	1	0	4.16	1	1.2	0.8;
	70	1	0.001459	0.0007295	0	0	1	1	0	4.16	1	1.2	0.8;
	71	1	0.000688	0.000344	0	0	1	1	0	4.16	1	1.2	0.8;
	72	1	0.000155	7.75e-05	0	0	1	1	0	4.16	1	1.2	0.8;
	73	1	0.000152	7.6e-05	0	0	1	1	0	4.16	1	1.2	0.8;
	74	1	0.000213	0.0001065	0	0	1	1	0	4.16	1	1.2	0.8;
	75	1	0.000312	0.000156	0	0	1	1	0	4.16	1	1.2	0.8;
	76	1	0.000394	0.000197	0	0	1	1	0	4.16	1	1.2	0.8;
	77	1	0.000558	0.000279	0	0	1	1	0	4.16	1	1.2	0.8;
	78	1	0.000746	0.000373	0	0	1	1	0	4.16	1	1.2	0.8;
	79	1	0.000663	0.0003315	0	0	1	1	0	4.16	1	1.2	0.8;
	80	1	0.001084	0.000542	0	0	1	1	0	4.16	1	1.2	0.8;
	81	1	0.000322	0.000161	0	0	1	1	0	4.16	1	1.2	0.8;
	82	1	0.000245	0.0001225	0	0	1	1	0	4.16	1	1.2	0.8;
	83	1	0.000228	0.000114	0	0	1	1	0	4.16	1	1.2	0.8;
	84	1	0.000407	0.0002035	0	0	1	1	0	4.16	1	1.2	0.8;
	85	1	0.01312	0.00656	0	0	1	1	0	4.16	1	1.2	0.8;
	86	1	0.000317	0.0001585	0	0	1	1	0	4.16	1	1.2	0.8;
	87	1	0.000334	0.000167	0	0	1	1	0	4.16	1	1.2	0.8;
	88	1	0.00035	0.000175	0	0	1	1	0	4.16	1	1.2	0.8;
	89	1	0.00078	0.00039	0	0	1	1	0	4.16	1	1.2	0.8;
	90	1	0.000748	0.000374	0	0	1	1	0	4.16	1	1.2	0.8;
	91	1	0.000112	5.6e-05	0	0	1	1	0	4.16	1	1.2	0.8;
	92	1	0.000445	0.0002225	0	0	1	1	0	4.16	1	1.2	0.8;
	93	1	0.000604	0.000302	0	0	1	1	0	4.16	1	1.2	0.8;
	94	1	0.000509	0.0002545	0	0	1	1	0	4.16	1	1.2	0.8;
	95	1	0.001295	0.0006475	0	0	1	1	0	4.16	1	1.2	0.8;
	96	1	0.000279	0.0001395	0	0	1	1	0	4.16	1	1.2	0.8;
	97	1	0.000286	0.000143	0	0	1	1	0	4.16	1	1.2	0.8;
	98	1	0.000767	0.0003835	0	0	1	1	0	4.16	1	1.2	0.8;
	99	1	6.6e-05	3.3e-05	0	0	1	1	0	4.16	1	1.2	0.8;
	100	1	0.000408	0.000204	0	0	1	1	0	4.16	1	1.2	0.8;
	101	1	1e-10	5e-11	0	0	1	1	0	4.16	1	1.2	0.8;
	102	1	0.000212	0.000106	0	0	1	1	0	4.16	1	1.2	0.8;
	103	1	0.000541	0.0002705	0	0	1	1	0	4.16	1	1.2	0.8;
	104	1	0.000474	0.000237	0	0	1	1	0	4.16	1	1.2	0.8;
	105	1	0.000976	0.000488	0	0	1	1	0	4.16	1	1.2	0.8;
	106	1	1e-10	5e-11	0	0	1	1	0	4.16	1	1.2	0.8;
	107	1	1e-10	5e-11	0	0	1	1	0	4.16	1	1.2	0.8;
	108	1	0.000259	0.0001295	0	0	1	1	0	4.16	1	1.2	0.8;
	109	1	0.000324	0.000162	0	0	1	1	0	4.16	1	1.2	0.8;
];

%% generator data
%	bus	Pg	Qg	Qmax	Qmin	Vg	mBase	status	Pmax	Pmin	Pc1	Pc2	Qc1min	Qc1max	Qc2min	Qc2max	ramp_agc	ramp_10	ramp_30	ramp_q	apf
mpc.gen = [
	1	17.068	0	200	-200	1	1	1	200	-200	0	0	0	0	0	0	10	0	0	0	0;
];

%% branch data
%	fbus	tbus	r	x	b	rateA	rateB	rateC	ratio	angle	status	angmin	angmax
mpc.branch = [
	109	1	0.0013398623	0.0027450827	3.02770272e-08	100	100	100	0	0	1	-80	80;
	1	2	0.0013398623	0.0027450827	3.02770272e-08	100	100	100	0	0	1	-80	80;
	2	3	0.0013398623	0.0027450827	3.02770272e-08	100	100	100	0	0	1	-80	80;
	3	4	0.0013398623	0.0027450827	3.02770272e-08	100	100	100	0	0	1	-80	80;
	4	5	0.0013398623	0.0027450827	3.02770272e-08	100	100	100	0	0	1	-80	80;
	5	6	0.0013398623	0.0027450827	3.02770272e-08	100	100	100	0	0	1	-80	80;
	6	7	0.0013398623	0.0027450827	3.02770272e-08	100	100	100	0	0	1	-80	80;
	7	8	0.0013398623	0.0027450827	3.02770272e-08	100	100	100	0	0	1	-80	80;
	8	9	0.0013398623	0.0027450827	3.02770272e-08	100	100	100	0	0	1	-80	80;
	9	10	0.0013398623	0.0027450827	3.02770272e-08	100	100	100	0	0	1	-80	80;
	10	11	0.0013398623	0.0027450827	3.02770272e-08	100	100	100	0	0	1	-80	80;
	11	12	0.0013398623	0.0027450827	3.02770272e-08	100	100	100	0	0	1	-80	80;
	12	13	0.0013398623	0.0027450827	3.02770272e-08	100	100	100	0	0	1	-80	80;
	13	14	0.0013398623	0.0027450827	3.02770272e-08	100	100	100	0	0	1	-80	80;
	14	15	0.0013398623	0.0027450827	3.02770272e-08	100	100	100	0	0	1	-80	80;
	15	16	0.0013398623	0.0027450827	3.02770272e-08	100	100	100	0	0	1	-80	80;
	16	17	0.0013398623	0.0027450827	3.02770272e-08	100	100	100	0	0	1	-80	80;
	17	18	0.0013398623	0.0027450827	3.02770272e-08	100	100	100	0	0	1	-80	80;
	18	19	0.0013398623	0.0027450827	3.02770272e-08	100	100	100	0	0	1	-80	80;
	19	20	0.0013398623	0.0027450827	3.02770272e-08	100	100	100	0	0	1	-80	80;
	20	21	0.0013398623	0.0027450827	3.02770272e-08	100	100	100	0	0	1	-80	80;
	21	22	0.0013398623	0.0027450827	3.02770272e-08	100	100	100	0	0	1	-80	80;
	22	23	0.0013398623	0.0027450827	3.02770272e-08	100	100	100	0	0	1	-80	80;
	23	24	0.0013398623	0.0027450827	3.02770272e-08	100	100	100	0	0	1	-80	80;
	24	25	0.0013398623	0.0027450827	3.02770272e-08	100	100	100	0	0	1	-80	80;
	25	26	0.0013398623	0.0027450827	3.02770272e-08	100	100	100	0	0	1	-80	80;
	26	27	0.0013398623	0.0027450827	3.02770272e-08	100	100	100	0	0	1	-80	80;
	27	28	0.0013398623	0.0027450827	3.02770272e-08	100	100	100	0	0	1	-80	80;
	28	29	0.0013398623	0.0027450827	3.02770272e-08	100	100	100	0	0	1	-80	80;
	29	30	0.0013398623	0.0027450827	3.02770272e-08	100	100	100	0	0	1	-80	80;
	30	31	0.0013398623	0.0027450827	3.02770272e-08	100	100	100	0	0	1	-80	80;
	31	32	0.0013398623	0.0027450827	3.02770272e-08	100	100	100	0	0	1	-80	80;
	32	33	0.0013398623	0.0027450827	3.02770272e-08	100	100	100	0	0	1	-80	80;
	33	34	0.0013398623	0.0027450827	3.02770272e-08	100	100	100	0	0	1	-80	80;
	34	35	0.0013398623	0.0027450827	3.02770272e-08	100	100	100	0	0	1	-80	80;
	35	36	0.0013398623	0.0027450827	3.02770272e-08	100	100	100	0	0	1	-80	80;
	36	37	0.0013398623	0.0027450827	3.02770272e-08	100	100	100	0	0	1	-80	80;
	37	38	0.0013398623	0.0027450827	3.02770272e-08	100	100	100	0	0	1	-80	80;
	38	39	0.0013398623	0.0027450827	3.02770272e-08	100	100	100	0	0	1	-80	80;
	39	40	0.0013398623	0.0027450827	3.02770272e-08	100	100	100	0	0	1	-80	80;
	40	41	0.0013398623	0.0027450827	3.02770272e-08	100	100	100	0	0	1	-80	80;
	41	42	0.0013398623	0.0027450827	3.02770272e-08	100	100	100	0	0	1	-80	80;
	42	43	0.0013398623	0.0027450827	3.02770272e-08	100	100	100	0	0	1	-80	80;
	43	44	0.0013398623	0.0027450827	3.02770272e-08	100	100	100	0	0	1	-80	80;
	44	45	0.0013398623	0.0027450827	3.02770272e-08	100	100	100	0	0	1	-80	80;
	45	46	0.0013398623	0.0027450827	3.02770272e-08	100	100	100	0	0	1	-80	80;
	46	47	0.0013398623	0.0027450827	3.02770272e-08	100	100	100	0	0	1	-80	80;
	47	48	0.0013398623	0.0027450827	3.02770272e-08	100	100	100	0	0	1	-80	80;
	48	49	0.0013398623	0.0027450827	3.02770272e-08	100	100	100	0	0	1	-80	80;
	49	50	0.0013398623	0.0027450827	3.02770272e-08	100	100	100	0	0	1	-80	80;
	50	51	0.0013398623	0.0027450827	3.02770272e-08	100	100	100	0	0	1	-80	80;
	51	52	0.0013398623	0.0027450827	3.02770272e-08	100	100	100	0	0	1	-80	80;
	52	53	0.0013398623	0.0027450827	3.02770272e-08	100	100	100	0	0	1	-80	80;
	53	54	0.0013398623	0.0027450827	3.02770272e-08	100	100	100	0	0	1	-80	80;
	109	55	0.0013398623	0.0027450827	3.02770272e-08	100	100	100	0	0	1	-80	80;
	55	56	0.0013398623	0.0027450827	3.02770272e-08	100	100	100	0	0	1	-80	80;
	56	57	0.0013398623	0.0027450827	3.02770272e-08	100	100	100	0	0	1	-80	80;
	57	58	0.0013398623	0.0027450827	3.02770272e-08	100	100	100	0	0	1	-80	80;
	58	59	0.0013398623	0.0027450827	3.02770272e-08	100	100	100	0	0	1	-80	80;
	59	60	0.0013398623	0.0027450827	3.02770272e-08	100	100	100	0	0	1	-80	80;
	60	61	0.0013398623	0.0027450827	3.02770272e-08	100	100	100	0	0	1	-80	80;
	61	62	0.0013398623	0.0027450827	3.02770272e-08	100	100	100	0	0	1	-80	80;
	62	63	0.0013398623	0.0027450827	3.02770272e-08	100	100	100	0	0	1	-80	80;
	63	64	0.0013398623	0.0027450827	3.02770272e-08	100	100	100	0	0	1	-80	80;
	64	65	0.0013398623	0.0027450827	3.02770272e-08	100	100	100	0	0	1	-80	80;
	65	66	0.0013398623	0.0027450827	3.02770272e-08	100	100	100	0	0	1	-80	80;
	66	67	0.0013398623	0.0027450827	3.02770272e-08	100	100	100	0	0	1	-80	80;
	67	68	0.0013398623	0.0027450827	3.02770272e-08	100	100	100	0	0	1	-80	80;
	68	69	0.0013398623	0.0027450827	3.02770272e-08	100	100	100	0	0	1	-80	80;
	69	70	0.0013398623	0.0027450827	3.02770272e-08	100	100	100	0	0	1	-80	80;
	70	71	0.0013398623	0.0027450827	3.02770272e-08	100	100	100	0	0	1	-80	80;
	71	72	0.0013398623	0.0027450827	3.02770272e-08	100	100	100	0	0	1	-80	80;
	72	73	0.0013398623	0.0027450827	3.02770272e-08	100	100	100	0	0	1	-80	80;
	73	74	0.0013398623	0.0027450827	3.02770272e-08	100	100	100	0	0	1	-80	80;
	74	75	0.0013398623	0.0027450827	3.02770272e-08	100	100	100	0	0	1	-80	80;
	75	76	0.0013398623	0.0027450827	3.02770272e-08	100	100	100	0	0	1	-80	80;
	76	77	0.0013398623	0.0027450827	3.02770272e-08	100	100	100	0	0	1	-80	80;
	77	78	0.0013398623	0.0027450827	3.02770272e-08	100	100	100	0	0	1	-80	80;
	78	79	0.0013398623	0.0027450827	3.02770272e-08	100	100	100	0	0	1	-80	80;
	79	80	0.0013398623	0.0027450827	3.02770272e-08	100	100	100	0	0	1	-80	80;
	80	81	0.0013398623	0.0027450827	3.02770272e-08	100	100	100	0	0	1	-80	80;
	81	82	0.0013398623	0.0027450827	3.02770272e-08	100	100	100	0	0	1	-80	80;
	82	83	0.0013398623	0.0027450827	3.02770272e-08	100	100	100	0	0	1	-80	80;
	83	84	0.0013398623	0.0027450827	3.02770272e-08	100	100	100	0	0	1	-80	80;
	84	85	0.0013398623	0.0027450827	3.02770272e-08	100	100	100	0	0	1	-80	80;
	85	86	0.0013398623	0.0027450827	3.02770272e-08	100	100	100	0	0	1	-80	80;
	86	87	0.0013398623	0.0027450827	3.02770272e-08	100	100	100	0	0	1	-80	80;
	87	88	0.0013398623	0.0027450827	3.02770272e-08	100	100	100	0	0	1	-80	80;
	88	89	0.0013398623	0.0027450827	3.02770272e-08	100	100	100	0	0	1	-80	80;
	89	90	0.0013398623	0.0027450827	3.02770272e-08	100	100	100	0	0	1	-80	80;
	90	91	0.0013398623	0.0027450827	3.02770272e-08	100	100	100	0	0	1	-80	80;
	91	92	0.0013398623	0.0027450827	3.02770272e-08	100	100	100	0	0	1	-80	80;
	92	93	0.0013398623	0.0027450827	3.02770272e-08	100	100	100	0	0	1	-80	80;
	93	94	0.0013398623	0.0027450827	3.02770272e-08	100	100	100	0	0	1	-80	80;
	94	95	0.0013398623	0.0027450827	3.02770272e-08	100	100	100	0	0	1	-80	80;
	95	96	0.0013398623	0.0027450827	3.02770272e-08	100	100	100	0	0	1	-80	80;
	96	97	0.0013398623	0.0027450827	3.02770272e-08	100	100	100	0	0	1	-80	80;
	97	98	0.0013398623	0.0027450827	3.02770272e-08	100	100	100	0	0	1	-80	80;
	98	99	0.0013398623	0.0027450827	3.02770272e-08	100	100	100	0	0	1	-80	80;
	99	100	0.0013398623	0.0027450827	3.02770272e-08	100	100	100	0	0	1	-80	80;
	100	101	0.0013398623	0.0027450827	3.02770272e-08	100	100	100	0	0	1	-80	80;
	101	102	0.0013398623	0.0027450827	3.02770272e-08	100	100	100	0	0	1	-80	80;
	102	103	0.0013398623	0.0027450827	3.02770272e-08	100	100	100	0	0	1	-80	80;
	103	104	0.0013398623	0.0027450827	3.02770272e-08	100	100	100	0	0	1	-80	80;
	104	105	0.0013398623	0.0027450827	3.02770272e-08	100	100	100	0	0	1	-80	80;
	105	106	0.0013398623	0.0027450827	3.02770272e-08	100	100	100	0	0	1	-80	80;
	106	107	0.0013398623	0.0027450827	3.02770272e-08	100	100	100	0	0	1	-80	80;
	107	108	0.0013398623	0.0027450827	3.02770272e-08	100	100	100	0	0	1	-80	80;
	108	109	0.0013398623	0.0027450827	3.02770272e-08	100	100	100	0	0	1	-80	80;
];

%%-----  OPF Data  -----%%
%% generator cost data
%	1	startup	shutdown	n	x1	y1	...	xn	yn
%	2	startup	shutdown	n	c(n-1)	...	c0
mpc.gencost = [
	2	0	0	3	0.1	40	0;
];
     %% storage data
 % hours;
mpc.time_elapsed = 0.0167
%   storage_bus  energy  energy_rating charge_rating  discharge_rating  charge_efficiency  discharge_efficiency  thermal_rating  qmin  qmax  r  x  standby_loss  status
mpc.storage = [
	 5            0.05     0.1          1             1                 0.9                0.9                   100.0        -50.0 70.0  0.1 0.0	0.05         1;
];
